72

 Si        4.048958041088     -0.510773568406     -0.029664168989
 Si       -1.095469518039     -4.486570281431      0.074148261547
 C        -2.089220331166      2.129162386978      0.058002919211
 C        -0.701966564513      2.214454182001      0.071134398233
 C        -0.102963788476      3.481805562679      0.089938226655
 C         1.303276871320      3.701782439245      0.107317066440
 C         1.812216928966      4.963819752656      0.120206149499
 C         0.953410674182      6.095234194787      0.118919166581
 C        -0.395341701685      5.929436429841      0.105725520704
 C        -0.982540832474      4.627988259181      0.090808616569
 C        -2.377356679298      4.484367078785      0.077152205463
 C        -2.965500040671      3.218673406645      0.060900822129
 C        -4.359558943953      2.902436638711      0.045856836267
 C        -4.768950829125      1.596363053157      0.029276230093
 C        -3.847900079748      0.504197768231      0.025576524953
 C        -2.511535089711      0.776489042434      0.039462469867
 C        -1.286739713867     -0.030068655100      0.039800083068
 C        -0.205985772801      0.827148951178      0.059407822851
 C         1.142929306007      0.413530483513      0.057030022263
 C         2.295612126555      0.047637836671      0.048335617668
 C         4.059325606832     -2.380393719094     -0.216354408109
 C         3.198970913843     -2.909289360305     -1.368061481152
 C         4.843205800376      0.319377669435     -1.519314177107
 C         4.835286556785      1.850489053126     -1.470307793422
 C        -1.233161594472     -1.437837025740      0.028239554748
 C        -1.192753181906     -2.647042049035      0.022661487120
 C        -2.850663329366     -5.152854282670      0.179556017869
 C        -3.659976365152     -4.642737295993      1.376167763306
 C        -0.098046172654     -4.953231633838      1.598310597630
 C         1.313401391421     -4.358475874845      1.636334846325
 C        -0.246597165066     -5.080571060210     -1.494207849374
 C        -0.897977791134     -4.603878276817     -2.796182147172
 H         1.961547162315      2.844370961261      0.111363434174
 H        -1.054804553762      6.789819448337      0.105776892408
 H        -2.994981817183      5.376040120475      0.079148286761
 H        -5.090913146377      3.702294451470      0.047444222763
 H         3.723036490550     -2.815791205561      0.729883241387
 H         3.530121109761     -2.515727695662     -2.332226163374
 H         2.152756305348     -2.623643403213     -1.239952204591
 H         4.327962766045     -0.027176238312     -2.420467109186
 H         5.871754864851     -0.049500314685     -1.601667381190
 H         5.367104862114      2.227259176554     -0.592730269986
 H         5.313262791037      2.283453512466     -2.352099306161
 H         3.814925010715      2.238581768224     -1.428222040417
 H        -2.793261579489     -6.247154266347      0.202207122013
 H        -3.365774938604     -4.899594756967     -0.752602858327
 H        -3.730583935009     -3.552455901346      1.368799817444
 H        -4.677436728100     -5.040853936437      1.371612512246
 H        -3.200817488084     -4.932333322908      2.324325172030
 H        -0.050066426078     -6.046886865260      1.652581668998
 H        -0.659688840329     -4.632113360435      2.481118762725
 H         1.283646611893     -3.268681174928      1.565545897467
 H         1.832932833300     -4.617362733286      2.562057161074
 H         1.923590903942     -4.721811326143      0.806553400996
 H        -0.219269124372     -6.175988172923     -1.463368373561
 H         0.796432482241     -4.753381538647     -1.461842108422
 H        -0.918072264199     -3.512929268770     -2.848200628560
 H        -0.355156934823     -4.967001666018     -3.672051496668
 H        -1.929285172634     -4.954613918197     -2.883013168976
 C         4.900146455525      0.016513766933      1.561756119790
 H         2.885520039373      5.111723115720      0.131891444145
 H         1.380883678043      7.090300935794      0.129352186544
 H         5.098794246702     -2.702483056189     -0.343650117895
 H         3.241465759126     -3.999485673387     -1.430662546511
 C         6.396566878003     -0.312813908648      1.608267853963
 H         4.747781832607      1.092085753910      1.695595250973
 H         4.381144722219     -0.462672865189      2.398000780044
 H         6.846751979316      0.002991669223      2.552157596712
 H         6.942546153061      0.187300028674      0.804200556116
 H         6.576065531416     -1.386033763413      1.505835501726
 H        -4.220300604895     -0.513521916693      0.011363664966
 H        -5.828972747663      1.374211234754      0.018042624622
