78

 Si        1.190191689117     12.505632968731      2.371383280615
 Si        4.727015038198     17.921048801683      2.468002503003
 C         3.095864942211     15.029391490554      8.260242052960
 C         2.406808745160     14.105911021348      7.463101694395
 C         1.711292358917     13.064404181269      8.079815407816
 C         0.972755495267     12.068577261721      7.374421193597
 C         0.322549319548     11.079149929286      8.040722984748
 C         0.355975969426     11.006637010819      9.463061352993
 C         1.042358175999     11.933354859881     10.176268408243
 C         1.747382000066     12.998164647574      9.528381314937
 C         2.445223788936     13.937784575387     10.283576437757
 C         3.143688904404     14.987811583155      9.662602910455
 C         3.885743227936     16.000153570266     10.295340152983
 C         4.534357732415     16.982993286719      9.551354359165
 C         5.285813317812     18.007535083204     10.211815006035
 C         5.926972667833     18.974287884462      9.509722140786
 C         5.864881683171     18.985314671419      8.086556743113
 C         5.166990426833     18.037196913783      7.408576365110
 C         4.472416772896     17.002248981879      8.102366475933
 C         3.732314046062     15.998899895828      7.474210920272
 C         3.420067243325     15.660753216047      6.084816364434
 C         2.626208504813     14.525310587815      6.078034408685
 C         2.140680991092     13.896071527670      4.913160175483
 C         1.737030430351     13.359180057017      3.906832843436
 C         1.979838901598     13.375669776086      0.904709406681
 C         3.499428990488     13.540084633110      1.005399059201
 C         1.762750527918     10.716233926508      2.476936342716
 C         1.203540291298      9.940965597645      3.673922554698
 C         3.835691377785     16.358103222240      4.931714160513
 C         4.188156669090     16.959701792249      3.942976357454
 C         5.644701937576     19.439850105448      3.093704189313
 C         4.812915055900     20.378360015335      3.974250955469
 C         3.188161386477     18.402409638083      1.501829222820
 C         2.323348458679     17.216545733706      1.062175939868
 C         5.861874120934     16.835360536203      1.435611140428
 C         7.067090756832     16.269260895293      2.193156727848
 H         0.939714984212     12.118431323207      6.295276741526
 H         1.071083598450     11.885256646097     11.258826001675
 H         2.444783930066     13.850482623377     11.364720097804
 H         3.960058300907     16.023657165791     11.377059180834
 H         5.329872548741     17.991631457186     11.294826000023
 H         6.490404076698     19.742366447972     10.024864005142
 H         6.384110561529     19.763907282749      7.540357246206
 H         5.127653776764     18.050938498365      6.328672051027
 H         1.505520849432     14.356411504039      0.799677087124
 H         4.005202368208     12.573942263500      1.076059958039
 H         3.774241159100     14.118282819905      1.890096211764
 H         2.856720904703     10.707764391473      2.506130166245
 H         1.483956657501     10.217495759984      1.541885574728
 H         0.110924403634      9.910041068643      3.657933606433
 H         1.558906499109      8.907921699860      3.685889075935
 H         1.505776824111     10.401215005494      4.617494335881
 H         6.029611615480     19.984165893400      2.223829297133
 H         6.526557679964     19.096226692678      3.644309515366
 H         4.408091865084     19.856119319103      4.844208726560
 H         5.408866713212     21.217489367236      4.341223608657
 H         3.965829994595     20.796252931748      3.425478678500
 H         3.501897893031     18.987209506095      0.629499194234
 H         2.596683795956     19.081951738198      2.123279027589
 H         2.008737158367     16.619472524899      1.921260239755
 H         1.422501937940     17.548600262806      0.540523354170
 H         2.866738837540     16.552773842184      0.385997921436
 H         6.198093401658     17.425740165286      0.575389014001
 H         5.266433523866     16.015783272380      1.023474367506
 H         6.746494512447     15.668375343559      3.047224245149
 H         7.680528953802     15.632207049356      1.551663719602
 H         7.711886395666     17.064158428354      2.576050012677
 C        -0.685987292286     12.599009875748      2.280902699710
 H        -0.231773697844     10.331467608662      7.485913182268
 H        -0.171283253238     10.207227431622      9.968720914618
 H         1.720400709291     12.816885312943     -0.001311307621
 H         3.904670124087     14.055183315540      0.130857121968
 C        -1.291450429589     11.859405681472      1.082535767162
 H        -1.097613104590     12.202479780706      3.214379760796
 H        -0.971105049984     13.655632047279      2.256675994788
 H        -2.380196545044     11.947649660974      1.065551165315
 H        -1.051938957685     10.793179585500      1.106407126014
 H        -0.918553171256     12.255979525201      0.134794758303
