72

 Si        2.598909361399      8.209732137831      4.077773926717
 Si        4.622204814161      2.730521751237      1.864499445114
 C         2.866194486241      3.051125470327      8.327595950879
 C         2.634273130798      4.387238770397      8.022406630832
 C         2.192031205521      5.245907494949      9.038261929751
 C         1.924871820625      6.631553646737      8.853428834730
 H         2.075057288883      7.061376402106      7.873034107872
 C         1.491736040045      7.402914352419      9.887478686529
 H         1.291862728889      8.455718530211      9.727426527763
 C         1.297648503037      6.845656209202     11.179583121808
 H         0.952329227814      7.478541034465     11.987789962373
 C         1.545180773763      5.527650882697     11.399819082170
 H         1.400279520774      5.098198655585     12.384529812240
 C         1.999921755585      4.672975641346     10.350348286899
 C         2.248317190564      3.316301206310     10.603386342546
 H         2.089330688900      2.933951504515     11.605902957402
 C         2.691980910617      2.468872648565      9.586845040179
 C         2.988645624040      1.073493266605      9.679156003658
 H         2.873726232896      0.562088176844     10.627871703440
 C         3.415281217565      0.386142997289      8.574950202234
 H         3.635721982250     -0.670708774502      8.662121519950
 C         3.582688162813      1.009931736426      7.300589779550
 H         3.922151007863      0.422938928083      6.455159387962
 C         3.306754805496      2.340564583658      7.182948982701
 C         3.345426418898      3.318073073981      6.090863420142
 C         2.944610627893      4.540318780833      6.590983147631
 C         2.847565840530      5.719656957646      5.822241001244
 C         2.766279833024      6.715370841493      5.140780502570
 C         2.906114802317      7.689253379321      2.305279761020
 H         2.214864272411      6.903183509679      1.996064192779
 H         3.921537420720      7.302938764376      2.198534944872
 H         2.793549207937      8.533337352481      1.620523049217
 C         3.885812821398      9.459532629232      4.618478571580
 H         4.887953921100      9.036845962874      4.517903091269
 H         3.750572073736      9.750939132971      5.661839738072
 C         0.834331304418      8.881255402466      4.313577770588
 C         0.660330919718     10.164700003457      3.489508233640
 H         0.819804863730      9.990669036270      2.422018141790
 H        -0.357793764312     10.551723168088      3.608087504586
 C         0.585329711478      9.194521635362      5.794670497504
 H        -0.424832999863      9.597258455257      5.928912624708
 H         1.287792609930      9.937879103369      6.180783238327
 H         0.665908387842      8.297848138594      6.413280838180
 C        -0.186089698232      7.835707404551      3.845148848158
 H        -0.080557983470      7.612357832840      2.780603861867
 H        -1.204817949912      8.207042914661      4.003322333604
 H        -0.084959522047      6.897979569473      4.397113799895
 C         3.732078074731      3.064149331034      4.760336249184
 C         4.064632500441      2.875022072170      3.612714888695
 C         3.325511055859      3.537792585901      0.779440592795
 H         3.616159414648      3.506862124642     -0.273564836130
 H         3.168673113152      4.580729127728      1.060428147657
 H         2.369976395965      3.018100202026      0.879175348912
 C         4.788702109056      0.913601863910      1.438796303152
 H         5.107279708515      0.780900817547      0.402047664803
 H         3.829283993845      0.405852677462      1.561032416217
 H         5.515010938710      0.415222605988      2.083746789599
 C         6.292794479929      3.633181806071      1.734700788473
 H         3.839404989347     10.361983759620      4.004104181986
 H         1.347833242944     10.952117642407      3.809145078184
 C         7.298988822512      3.012251774085      2.712010605749
 C         6.834898386838      3.511161670710      0.303844054730
 C         6.105998131856      5.116284918009      2.080116013626
 H         7.483591965924      1.957391790219      2.492417098155
 H         8.260121125676      3.534130407933      2.643785753192
 H         6.953044182265      3.085922989703      3.745669473490
 H         7.012319993180      2.470163746092      0.021402233090
 H         6.153390643683      3.948430333086     -0.430781813500
 H         7.790478877694      4.040351821962      0.217787499995
 H         5.443713649543      5.615505167723      1.368648575715
 H         5.687452928582      5.249079564029      3.080902488256
 H         7.071193675317      5.634273897364      2.049306065430
