72

 Si        4.049314642898     -0.513038538829     -0.023621307966
 Si       -1.096250707126     -4.488427763959      0.069108750431
 C        -2.090268337449      2.130303907507      0.060599070646
 C        -0.702831474253      2.215235298139      0.070944666847
 C        -0.103213321909      3.482847570694      0.086063162749
 C         1.303031630462      3.702894534668      0.100046877553
 C         1.812051909964      4.965305183610      0.109549342446
 C         0.953273039835      6.096811949078      0.107894254776
 C        -0.395794555556      5.930957921306      0.097715116382
 C        -0.982717401223      4.629197992427      0.086469090922
 C        -2.377956872682      4.486076317968      0.075769678686
 C        -2.966305222625      3.220344785745      0.063053842470
 C        -4.360705682067      2.905116701012      0.051122785445
 C        -4.770971560997      1.598967075222      0.037792574990
 C        -3.850524525152      0.506334950699      0.034469102920
 C        -2.513470075511      0.777775313757      0.045286658791
 C        -1.289126938276     -0.029129643068      0.044685066380
 C        -0.207619788398      0.828076984361      0.060697350596
 C         1.141181993765      0.413144583193      0.057219597226
 C         2.293348602015      0.044841590422      0.047618124542
 C         4.059861939852     -2.382456994591     -0.209187665520
 C         3.214968714192     -2.912633485531     -1.371679456531
 C         4.848009793721      0.317648376241     -1.510030068824
 C         4.843337447298      1.848743111413     -1.459711641231
 C        -1.234445959153     -1.437208955730      0.033734725099
 C        -1.190817269932     -2.646572453862      0.027336261802
 C        -2.853074891276     -5.150382390757      0.166322987626
 C        -3.666576111833     -4.642389385653      1.361036039472
 C        -0.102784261497     -4.964259111478      1.592568697832
 C         1.311929914926     -4.377553291695      1.634222483875
 C        -0.243993438855     -5.072773787262     -1.500722809238
 C        -0.889620720021     -4.586955363034     -2.802163406828
 H         1.962069712135      2.846014998467      0.103956028842
 H        -1.055375690273      6.791191870979      0.097417213735
 H        -2.995442712021      5.377721314341      0.077203140460
 H        -5.091363538859      3.705507987692      0.052469423980
 H         3.711646834012     -2.816696507616      0.733223009339
 H         3.560797131593     -2.521985393336     -2.331845838098
 H         2.167252090022     -2.625420413248     -1.259524376469
 H         4.335515739584     -0.027765292785     -2.413215410046
 H         5.876087395446     -0.053268036576     -1.588473324867
 H         5.373413690588      2.223495709053     -0.580334517203
 H         5.324865021945      2.280976374472     -2.339949112595
 H         3.823905340418      2.239650199060     -1.419926460713
 H        -2.795861966240     -6.244669992282      0.187136784662
 H        -3.364365523203     -4.894967790387     -0.767343052194
 H        -3.741164351413     -3.552322826099      1.353183796371
 H        -4.682808627174     -5.043598177245      1.353710202331
 H        -3.208803423657     -4.930611754956      2.310298670841
 H        -0.060668081877     -6.058333143772      1.641189216365
 H        -0.663827037018     -4.644690434448      2.476347899260
 H         1.289111110738     -3.287214297943      1.568543253471
 H         1.829414260585     -4.643457341738      2.559090197793
 H         1.920618187575     -4.740314634134      0.803115252529
 H        -0.220684364028     -6.168355908322     -1.475768463441
 H         0.800018281630     -4.749326625670     -1.462740319839
 H        -0.903423472502     -3.495627077778     -2.850131347375
 H        -0.346462710537     -4.949435290602     -3.678121040466
 H        -1.922632269267     -4.931563671717     -2.892887827997
 C         4.889701266676      0.016412184008      1.572446840346
 H         2.885340727653      5.113326387457      0.118726236342
 H         1.380936590821      7.091769874609      0.115559342727
 H         5.100908361414     -2.704287344758     -0.322975616106
 H         3.255934764701     -4.003061025498     -1.430582515783
 C         6.386605080893     -0.309968801564      1.627052375524
 H         4.734874126845      1.091864914168      1.704544626473
 H         4.367247770745     -0.464244599612      2.405733244452
 H         6.830532587189      0.007184863753      2.573468789775
 H         6.935589512766      0.191269426122      0.825794033611
 H         6.568667056751     -1.382820633941      1.525710730929
 H        -4.224648664380     -0.510789501067      0.023054538090
 H        -5.831016823412      1.377172230902      0.028937020579
