72 

 Si        2.501997671662      7.922612914116      3.850474033500
 Si        4.838085015843      2.655586624623      1.909746477036
 C         2.755030030177      2.889464168248      8.251212131625
 C         2.451917004362      4.242363463338      7.878922598343
 C         1.868781291211      5.109602075549      8.875634771511
 C         1.519409498527      6.440368950771      8.629350231032
 H         1.689133910611      6.853023692943      7.644654428516
 C         0.963342533225      7.225969427374      9.620886264680
 H         0.699605518577      8.254870235145      9.408949728984
 C         0.741764726957      6.692551676546     10.894563104386
 H         0.306441865614      7.309281961343     11.671401621818
 C         1.074722806973      5.383518704922     11.162506962009
 H         0.901093662307      4.970026069698     12.149404437014
 C         1.642639117660      4.553630737152     10.173028043632
 C         1.971296269628      3.199107109408     10.481469984877
 H         1.774989532758      2.836961658415     11.484104174157
 C         2.534223381570      2.340293470559      9.518086931922
 C         2.905989277016      0.978141047167      9.679925980338
 H         2.760362467892      0.494332504974     10.638458758695
 C         3.452741650503      0.265441986493      8.620525781267
 H         3.724951219457     -0.771495200759      8.777895329588
 C         3.666571469152      0.832323663884      7.357743079588
 H         4.095344360956      0.246590753888      6.554561069025
 C         3.310441419453      2.171976026432      7.171604452331
 C         3.366767860898      3.084173095458      6.077959699121
 C         2.819398098178      4.395616252253      6.556186149284
 C         2.732372694424      5.523947305073      5.731357090030
 C         2.671115976965      6.480713924196      4.988382823108
 C         1.839805915304      7.279614100594      2.220660973914
 H         0.854737547750      6.824512995834      2.339267708784
 H         2.512584114707      6.520887440295      1.815834598865
 H         1.759182577956      8.084163907174      1.485826867974
 C         4.193174256797      8.689620796875      3.608094397356
 H         4.870108931677      7.978456593168      3.131129810658
 H         4.636540526513      8.989445350161      4.559315831212
 C         1.296188726798      9.147472169980      4.666089319341
 C         1.024600025851     10.312559192628      3.703634461071
 H         0.552812900947      9.974601323711      2.777518608557
 H         0.346911419291     11.035034962366      4.171743055585
 C         1.908231906448      9.697978600982      5.961122820007
 H         1.200047135612     10.373569895827      6.453726779136
 H         2.823044168817     10.264015342041      5.770000978679
 H         2.151945517084      8.901893359047      6.668920771103
 C        -0.028207517535      8.444995593737      4.992327570271
 H        -0.512733313899      8.051133816201      4.095216834677
 H        -0.723629340541      9.152857884178      5.457038538405
 H         0.113500464051      7.613880863941      5.686908250202
 C         3.825823330408      2.864924132474      4.794212438881
 C         4.219637381049      2.722266905097      3.649475608989
 C         3.385539818805      3.016421290129      0.784764016862
 H         3.699572897622      3.035581009321     -0.261735338604
 H         2.925785963508      3.977562784193      1.021497110978
 H         2.620600548329      2.244142352733      0.891117734992
 C         5.512379689452      0.940102066830      1.587875982985
 H         5.878393930103      0.852345804614      0.562101400483
 H         4.728893551521      0.192070275505      1.728208961230
 H         6.334072936689      0.697173165256      2.264167747271
 C         6.186932308405      3.988880046387      1.767343344438
 H         4.129862847296      9.573222674423      2.968047663550
 H         1.940351405522     10.848332051188      3.439658009196
 C         7.305062792737      3.712099846850      2.780792945807
 C         6.772954484201      3.971784361810      0.348496617864
 C         5.583840544068      5.370614299755      2.050213276767
 H         7.781317485515      2.743424311210      2.609319151082
 H         8.082789809016      4.479407212141      2.698836269001
 H         6.931421754503      3.727337408664      3.807510449724
 H         7.240636024650      3.012868597134      0.110924645313
 H         6.013128987477      4.174303555863     -0.410932002312
 H         7.544010512408      4.744219506503      0.253526694297
 H         4.818981000175      5.638296386226      1.316879445055
 H         5.131202740470      5.419762220510      3.043501434582
 H         6.365794959881      6.136714247240      2.001461078356
