96

 Si        2.984406653462      8.452150584465      4.607831048441
 Si        9.127680123473      9.604995517616      4.585104928918
 C         4.484107511081     11.050897469800      0.011955827150
 C         2.043581325344     10.553688838355      0.094713600012
 C         6.421171746689     10.785679762268      1.244631067900
 C         5.060973827817     10.521147531124      1.248080133291
 C         4.383209494667      9.851271059166      2.287320609597
 C         3.820281959222      9.271894530954      3.187839348653
 C         4.346842666738      7.582628044055      5.593602262419
 C         5.084460881923      6.530086888139      4.761227197359
 C         3.856325572793      6.989563538353      6.918499010351
 C         2.183340161885      9.821804238776      5.642047327317
 C         3.237354898741     10.738290229281      6.273377177316
 C         1.173045421047     10.644958388791      4.835053534733
 C         1.708330904700      7.215299013669      3.935644884438
 C         0.614696085756      6.896866561570      4.964075341704
 C         1.089026084688      7.626164769511      2.595015590209
 C         7.303615138771     10.425354599878      2.283256973071
 C         8.040135176706     10.106321166461      3.188068782222
 C         8.874012103740      7.747764861445      4.884195389633
 C         8.624865233058      6.941989664591      3.604498356126
 C        10.016381565086      7.127535312811      5.699330791102
 C         8.580172216372     10.641085414130      6.074737554789
 C         9.489410102780     10.489046970590      7.298848370930
 C         7.115902480380     10.390136646613      6.446131362150
 H         2.154352405918     10.083427198466      1.061399952484
 H        -0.042063103966     10.207984161013     -0.005433916299
 H         9.283467403787     11.436209978542      1.030623308960
 H         5.062958910573      8.378152276967      5.825496147159
 H         5.934377599288      6.121272649945      5.316479459470
 H         5.469168774478      6.947090775982      3.828806641395
 H         4.430476465464      5.690601024842      4.508396623515
 H         3.161952284880      6.161505868165      6.751453584285
 H         3.347617672679      7.728360956537      7.542623243690
 H         4.695511688388      6.591736922045      7.497644975794
 H         1.641157411931      9.318411823703      6.451998977978
 H         3.836768539828     11.234659683358      5.505198369963
 H         3.923052540333     10.194313430674      6.926174038669
 H         2.760042443347     11.519618326982      6.872896141146
 H         0.731051152527     11.430460823946      5.455853725178
 H         0.355176931372     10.034100815202      4.447912865460
 H         1.655727808509     11.132348431314      3.983452707870
 H         2.275272543041      6.293314047219      3.759355300888
 H        -0.007968903654      7.772206751949      5.166794627717
 H         1.023104852351      6.558096110159      5.918571663365
 H        -0.046047310240      6.108325885610      4.591287690053
 H         0.395413293465      6.856888074441      2.241157348474
 H         1.849783696592      7.769787909448      1.826529719039
 H         0.524031367992      8.558504516861      2.678866938697
 H        10.441664016972     11.962354150014      3.178382635553
 H        10.727863005664      9.561900902571      1.980372007350
 H         7.960382371440      7.686525522620      5.487948787735
 H         9.504349684794      6.934827284500      2.956163666489
 H         7.794371863215      7.347296987362      3.025700877556
 H         8.390549285125      5.900998225784      3.847907357361
 H         9.799068710581      6.080418573546      5.931299489351
 H         8.656906076932     11.677821124870      5.725878866162
 H         9.197290169009     11.190847901523      8.086026565297
 H         9.419212104027      9.484265083675      7.723757533716
 H         6.975451083111      9.379930097285      6.841448279557
 H         6.452206106839     10.507478686290      5.587228256920
 H         6.784805674181     11.088522494638      7.220850854120
 C        10.907105330756     10.040247998981      4.102827437558
 C         3.202162769972     11.093746092552     -0.538164724350
 C         5.548947971059     11.620234922241     -0.698674768158
 C         0.825382375140     10.626507256413     -0.501984299719
 C         6.753231239899     11.487510633762      0.004820610215
 H        10.956785450864      7.146265123774      5.141753022957
 H        10.186537422046      7.644571194725      6.645779965042
 H        10.540020699793     10.677070305608      7.064341405384
 C        11.369001904983      9.318270441657      2.832024861382
 H        11.540808699255      9.701365916330      4.931649335705
 C        11.092885947017     11.555431482036      3.957270428523
 C         3.048451710213     11.728957766481     -1.833110465465
 C         5.425745591387     12.242010688792     -1.951131904025
 C         0.667298370362     11.245879160109     -1.775284315577
 C         7.925462069657     11.998142605266     -0.554540130261
 H        11.361326337142      8.233082812170      2.947480799644
 H        12.389987665288      9.613443293836      2.570292742523
 H        12.124417953282     11.792854649139      3.679140536756
 H        10.870159991343     12.090876071735      4.882449559060
 C         1.739879098303     11.776700346059     -2.412933245340
 C         4.134976574084     12.281945137186     -2.507040265680
 C         6.606403803490     12.757100586139     -2.514400982814
 H        -0.315342587030     11.289783024161     -2.228353669674
 C         7.824906280112     12.645649337047     -1.848304254209
 C         9.206778430725     11.919666831159      0.067070184430
 H         1.626375766383     12.250303645086     -3.381421216912
 H         3.974135240870     12.747917873929     -3.473114157018
 H         6.577456451492     13.249271732114     -3.480465881792
 C         9.019076710266     13.174863072553     -2.435274737349
 C        10.307841219488     12.439129315563     -0.535564761453
 H         8.942493980586     13.658736269679     -3.402252471596
 C        10.216363045807     13.077425872709     -1.806007467927
 H        11.272167122666     12.368808525053     -0.046407031933
 H        11.109799405610     13.483094935498     -2.264222919875
